2020-08-20 16:13:36: xmlchange success <command> ./xmlchange CLM_USRDAT_NAME=1x1pt_Jambi,DATM_MODE=CLM1PT,CLM_BLDNML_OPTS=-mask navy -bgc bgc  </command>
 ---------------------------------------------------
2020-08-20 16:13:36: xmlchange success <command> ./xmlchange CLM_ACCELERATED_SPINUP=on  </command>
 ---------------------------------------------------
2020-08-20 16:13:36: xmlchange success <command> ./xmlchange CLM_FORCE_COLDSTART=on  </command>
 ---------------------------------------------------
2020-08-20 16:13:37: xmlchange success <command> ./xmlchange DATM_PRESAERO=clim_1850  </command>
 ---------------------------------------------------
2020-08-20 16:13:37: xmlchange success <command> ./xmlchange STOP_N=5,STOP_OPTION=nyears  </command>
 ---------------------------------------------------
2020-08-20 16:13:37: xmlchange success <command> ./xmlchange RUN_STARTDATE=0001-01-01  </command>
 ---------------------------------------------------
2020-08-20 16:13:37: xmlchange success <command> ./xmlchange CCSM_CO2_PPMV=284.7  </command>
 ---------------------------------------------------
2020-08-20 16:13:37: xmlchange success <command> ./xmlchange ATM_DOMAIN_FILE=domain.lnd.${CLM_USRDAT_NAME}_navy.nc  </command>
 ---------------------------------------------------
2020-08-20 16:13:37: xmlchange success <command> ./xmlchange ATM_DOMAIN_PATH=$DIN_LOC_ROOT/share/domains/domain.clm  </command>
 ---------------------------------------------------
2020-08-20 16:13:38: xmlchange success <command> ./xmlchange LND_DOMAIN_FILE=domain.lnd.${CLM_USRDAT_NAME}_navy.nc  </command>
 ---------------------------------------------------
2020-08-20 16:13:38: xmlchange success <command> ./xmlchange LND_DOMAIN_PATH=$DIN_LOC_ROOT/share/domains/domain.clm  </command>
 ---------------------------------------------------
2020-08-20 16:13:43: case.setup starting 
 ---------------------------------------------------
2020-08-20 16:13:44: case.setup success 
 ---------------------------------------------------
2020-08-20 16:13:52: case.build starting 
 ---------------------------------------------------
2020-08-20 16:15:23: case.build error 
ERROR: BUILD FAIL: clm.buildlib failed, cat /usr/users/yfan1/cesm/exeroot/1x1pt_testcase2_clm-palm-ctsm1.0.dev040/bld/lnd.bldlog.200820-161352
 ---------------------------------------------------
2020-09-16 15:19:00: build.clean starting 
 ---------------------------------------------------
2020-09-16 15:19:01: build.clean success 
 ---------------------------------------------------
2020-09-16 15:19:18: case.setup starting 
 ---------------------------------------------------
2020-09-16 15:19:19: case.setup success 
 ---------------------------------------------------
2020-09-16 15:19:25: case.build starting 
 ---------------------------------------------------
2020-09-16 15:19:41: case.build error 
ERROR: BUILD FAIL: clm.buildlib failed, cat /usr/users/yfan1/cesm/exeroot/1x1pt_testcase2_clm-palm-ctsm1.0.dev040/bld/lnd.bldlog.200916-151926
 ---------------------------------------------------
2020-09-16 15:25:26: build.clean starting 
 ---------------------------------------------------
2020-09-16 15:25:27: build.clean success 
 ---------------------------------------------------
2020-09-16 15:25:32: case.build starting 
 ---------------------------------------------------
2020-09-16 15:26:27: case.build error 
ERROR: BUILD FAIL: clm.buildlib failed, cat /usr/users/yfan1/cesm/exeroot/1x1pt_testcase2_clm-palm-ctsm1.0.dev040/bld/lnd.bldlog.200916-152533
 ---------------------------------------------------
2020-09-16 16:32:04: build.clean starting 
 ---------------------------------------------------
2020-09-16 16:32:06: build.clean success 
 ---------------------------------------------------
2020-09-16 16:32:12: case.build starting 
 ---------------------------------------------------
2020-09-16 16:32:25: case.build error 
ERROR: BUILD FAIL: clm.buildlib failed, cat /usr/users/yfan1/cesm/exeroot/1x1pt_testcase2_clm-palm-ctsm1.0.dev040/bld/lnd.bldlog.200916-163212
 ---------------------------------------------------
2020-10-04 11:01:55: build.clean starting 
 ---------------------------------------------------
2020-10-04 11:01:56: build.clean success 
 ---------------------------------------------------
2020-10-04 11:02:02: case.setup starting 
 ---------------------------------------------------
2020-10-04 11:02:03: case.setup success 
 ---------------------------------------------------
2020-10-04 11:02:16: case.build starting 
 ---------------------------------------------------
2020-10-04 11:07:58: case.build error 
ERROR: BUILD FAIL: clm.buildlib failed, cat /usr/users/yfan1/cesm/exeroot/1x1pt_testcase2_clm-palm-ctsm1.0.dev040/bld/lnd.bldlog.201004-110216
 ---------------------------------------------------
2020-10-04 11:14:19: case.build starting 
 ---------------------------------------------------
2020-10-04 11:15:37: case.build error 
ERROR: BUILD FAIL: clm.buildlib failed, cat /usr/users/yfan1/cesm/exeroot/1x1pt_testcase2_clm-palm-ctsm1.0.dev040/bld/lnd.bldlog.201004-111419
 ---------------------------------------------------
2020-10-04 11:31:35: case.build starting 
 ---------------------------------------------------
2020-10-04 11:36:07: case.build error 
ERROR: BUILD FAIL: clm.buildlib failed, cat /usr/users/yfan1/cesm/exeroot/1x1pt_testcase2_clm-palm-ctsm1.0.dev040/bld/lnd.bldlog.201004-113135
 ---------------------------------------------------
2020-10-04 14:46:20: case.build starting 
 ---------------------------------------------------
2020-10-04 14:46:54: case.build error 
ERROR: BUILD FAIL: clm.buildlib failed, cat /usr/users/yfan1/cesm/exeroot/1x1pt_testcase2_clm-palm-ctsm1.0.dev040/bld/lnd.bldlog.201004-144620
 ---------------------------------------------------
2020-10-04 15:27:29: case.build starting 
 ---------------------------------------------------
2020-10-04 15:28:18: case.build error 
ERROR: BUILD FAIL: clm.buildlib failed, cat /usr/users/yfan1/cesm/exeroot/1x1pt_testcase2_clm-palm-ctsm1.0.dev040/bld/lnd.bldlog.201004-152729
 ---------------------------------------------------
2020-10-04 15:58:47: case.build starting 
 ---------------------------------------------------
2020-10-04 15:59:09: case.build error 
ERROR: BUILD FAIL: clm.buildlib failed, cat /usr/users/yfan1/cesm/exeroot/1x1pt_testcase2_clm-palm-ctsm1.0.dev040/bld/lnd.bldlog.201004-155848
 ---------------------------------------------------
2020-10-08 15:54:20: case.build starting 
 ---------------------------------------------------
2020-10-08 15:54:36: case.build error 
ERROR: BUILD FAIL: clm.buildlib failed, cat /usr/users/yfan1/cesm/exeroot/1x1pt_testcase2_clm-palm-ctsm1.0.dev040/bld/lnd.bldlog.201008-155420
 ---------------------------------------------------
2020-10-08 16:06:25: case.build starting 
 ---------------------------------------------------
2020-10-08 16:06:43: case.build error 
ERROR: BUILD FAIL: clm.buildlib failed, cat /usr/users/yfan1/cesm/exeroot/1x1pt_testcase2_clm-palm-ctsm1.0.dev040/bld/lnd.bldlog.201008-160625
 ---------------------------------------------------
2020-10-30 10:06:04: case.build starting 
 ---------------------------------------------------
2020-10-30 10:06:16: case.build error 
ERROR: BUILD FAIL: clm.buildlib failed, cat /usr/users/yfan1/cesm/exeroot/1x1pt_testcase2_clm-palm-ctsm1.0.dev040/bld/lnd.bldlog.201030-100604
 ---------------------------------------------------
2020-10-30 10:43:03: case.build starting 
 ---------------------------------------------------
2020-10-30 10:43:14: case.build error 
ERROR: BUILD FAIL: clm.buildlib failed, cat /usr/users/yfan1/cesm/exeroot/1x1pt_testcase2_clm-palm-ctsm1.0.dev040/bld/lnd.bldlog.201030-104303
 ---------------------------------------------------
2020-10-30 10:52:26: case.build starting 
 ---------------------------------------------------
2020-10-30 10:52:34: case.build error 
ERROR: BUILD FAIL: clm.buildlib failed, cat /usr/users/yfan1/cesm/exeroot/1x1pt_testcase2_clm-palm-ctsm1.0.dev040/bld/lnd.bldlog.201030-105226
 ---------------------------------------------------
2020-10-30 10:56:06: case.build starting 
 ---------------------------------------------------
2020-10-30 10:56:12: case.build error 
ERROR: BUILD FAIL: clm.buildlib failed, cat /usr/users/yfan1/cesm/exeroot/1x1pt_testcase2_clm-palm-ctsm1.0.dev040/bld/lnd.bldlog.201030-105606
 ---------------------------------------------------
2020-11-02 04:22:09: case.build starting 
 ---------------------------------------------------
2020-11-02 04:22:36: case.build error 
ERROR: BUILD FAIL: clm.buildlib failed, cat /usr/users/yfan1/cesm/exeroot/1x1pt_testcase2_clm-palm-ctsm1.0.dev040/bld/lnd.bldlog.201102-042209
 ---------------------------------------------------
2020-11-02 09:36:17: case.build starting 
 ---------------------------------------------------
2020-11-02 09:37:53: case.build error 
ERROR: BUILD FAIL: clm.buildlib failed, cat /usr/users/yfan1/cesm/exeroot/1x1pt_testcase2_clm-palm-ctsm1.0.dev040/bld/lnd.bldlog.201102-093617
 ---------------------------------------------------
2020-11-02 10:08:27: case.build starting 
 ---------------------------------------------------
2020-11-02 10:08:37: case.build error 
ERROR: BUILD FAIL: clm.buildlib failed, cat /usr/users/yfan1/cesm/exeroot/1x1pt_testcase2_clm-palm-ctsm1.0.dev040/bld/lnd.bldlog.201102-100827
 ---------------------------------------------------
2020-11-02 10:17:09: case.build starting 
 ---------------------------------------------------
2020-11-02 10:17:20: case.build error 
ERROR: BUILD FAIL: clm.buildlib failed, cat /usr/users/yfan1/cesm/exeroot/1x1pt_testcase2_clm-palm-ctsm1.0.dev040/bld/lnd.bldlog.201102-101709
 ---------------------------------------------------
2020-11-02 10:32:27: case.build starting 
 ---------------------------------------------------
2020-11-02 10:32:33: case.build error 
ERROR: BUILD FAIL: clm.buildlib failed, cat /usr/users/yfan1/cesm/exeroot/1x1pt_testcase2_clm-palm-ctsm1.0.dev040/bld/lnd.bldlog.201102-103227
 ---------------------------------------------------
2020-11-03 07:30:35: case.build starting 
 ---------------------------------------------------
2020-11-03 07:32:23: case.build error 
ERROR: BUILD FAIL: clm.buildlib failed, cat /usr/users/yfan1/cesm/exeroot/1x1pt_testcase2_clm-palm-ctsm1.0.dev040/bld/lnd.bldlog.201103-073035
 ---------------------------------------------------
2020-11-03 08:34:01: case.build starting 
 ---------------------------------------------------
2020-11-03 08:34:10: case.build error 
ERROR: BUILD FAIL: clm.buildlib failed, cat /usr/users/yfan1/cesm/exeroot/1x1pt_testcase2_clm-palm-ctsm1.0.dev040/bld/lnd.bldlog.201103-083402
 ---------------------------------------------------
2020-11-03 09:18:16: case.build starting 
 ---------------------------------------------------
2020-11-03 09:18:25: case.build error 
ERROR: BUILD FAIL: clm.buildlib failed, cat /usr/users/yfan1/cesm/exeroot/1x1pt_testcase2_clm-palm-ctsm1.0.dev040/bld/lnd.bldlog.201103-091817
 ---------------------------------------------------
2020-11-03 09:55:15: case.build starting 
 ---------------------------------------------------
2020-11-03 09:57:01: case.build error 
ERROR: BUILD FAIL: clm.buildlib failed, cat /usr/users/yfan1/cesm/exeroot/1x1pt_testcase2_clm-palm-ctsm1.0.dev040/bld/lnd.bldlog.201103-095515
 ---------------------------------------------------
2020-11-03 10:47:49: case.build starting 
 ---------------------------------------------------
2020-11-03 10:47:58: case.build error 
ERROR: BUILD FAIL: clm.buildlib failed, cat /usr/users/yfan1/cesm/exeroot/1x1pt_testcase2_clm-palm-ctsm1.0.dev040/bld/lnd.bldlog.201103-104749
 ---------------------------------------------------
2020-11-04 08:53:43: case.build starting 
 ---------------------------------------------------
2020-11-04 08:55:21: case.build error 
ERROR: BUILD FAIL: clm.buildlib failed, cat /usr/users/yfan1/cesm/exeroot/1x1pt_testcase2_clm-palm-ctsm1.0.dev040/bld/lnd.bldlog.201104-085343
 ---------------------------------------------------
2020-11-04 09:15:38: case.build starting 
 ---------------------------------------------------
2020-11-04 09:15:47: case.build error 
ERROR: BUILD FAIL: clm.buildlib failed, cat /usr/users/yfan1/cesm/exeroot/1x1pt_testcase2_clm-palm-ctsm1.0.dev040/bld/lnd.bldlog.201104-091538
 ---------------------------------------------------
2020-11-04 09:40:25: case.build starting 
 ---------------------------------------------------
2020-11-04 09:40:31: case.build error 
ERROR: BUILD FAIL: clm.buildlib failed, cat /usr/users/yfan1/cesm/exeroot/1x1pt_testcase2_clm-palm-ctsm1.0.dev040/bld/lnd.bldlog.201104-094025
 ---------------------------------------------------
2020-11-10 03:19:59: case.build starting 
 ---------------------------------------------------
2020-11-10 03:20:19: case.build error 
ERROR: BUILD FAIL: clm.buildlib failed, cat /usr/users/yfan1/cesm/exeroot/1x1pt_testcase2_clm-palm-ctsm1.0.dev040/bld/lnd.bldlog.201110-031959
 ---------------------------------------------------
2020-11-10 06:48:58: case.build starting 
 ---------------------------------------------------
2020-11-10 06:49:05: case.build error 
ERROR: BUILD FAIL: clm.buildlib failed, cat /usr/users/yfan1/cesm/exeroot/1x1pt_testcase2_clm-palm-ctsm1.0.dev040/bld/lnd.bldlog.201110-064858
 ---------------------------------------------------
2020-11-20 05:40:32: case.build starting 
 ---------------------------------------------------
2020-11-20 05:40:42: case.build error 
ERROR: BUILD FAIL: clm.buildlib failed, cat /usr/users/yfan1/cesm/exeroot/1x1pt_testcase2_clm-palm-ctsm1.0.dev040/bld/lnd.bldlog.201120-054033
 ---------------------------------------------------
2020-11-20 06:40:31: case.build starting 
 ---------------------------------------------------
2020-11-20 06:40:35: case.build error 
ERROR: BUILD FAIL: clm.buildlib failed, cat /usr/users/yfan1/cesm/exeroot/1x1pt_testcase2_clm-palm-ctsm1.0.dev040/bld/lnd.bldlog.201120-064031
 ---------------------------------------------------
2020-11-20 06:56:38: case.build starting 
 ---------------------------------------------------
2020-11-20 06:56:42: case.build error 
ERROR: BUILD FAIL: clm.buildlib failed, cat /usr/users/yfan1/cesm/exeroot/1x1pt_testcase2_clm-palm-ctsm1.0.dev040/bld/lnd.bldlog.201120-065638
 ---------------------------------------------------
2021-06-17 06:09:01: case.build starting 
 ---------------------------------------------------
2021-06-17 06:09:02: case.build error 
ERROR: module command /cm/local/apps/environment-modules/3.2.10/bin/modulecmd python load subversion intel/compiler intel/mkl netcdf/intel/64 intel/mpi hdf5/parallel/intelmpi/1.8.11 netcdf/intel/parallel failed with message:
ERROR: Unable to locate a modulefile for 'subversion'
ERROR: Unable to locate a modulefile for 'intel/compiler'
ERROR: Unable to locate a modulefile for 'intel/mkl'
ERROR: Unable to locate a modulefile for 'netcdf/intel/64'
ERROR: Unable to locate a modulefile for 'intel/mpi'
ERROR: Unable to locate a modulefile for 'hdf5/parallel/intelmpi/1.8.11'
ERROR: Unable to locate a modulefile for 'netcdf/intel/parallel'
 ---------------------------------------------------
2021-06-17 06:09:52: build.clean starting 
 ---------------------------------------------------
2021-06-17 06:09:53: build.clean success 
 ---------------------------------------------------
2021-06-17 06:10:02: case.build starting 
 ---------------------------------------------------
2021-06-17 06:10:02: case.build error 
ERROR: module command /cm/local/apps/environment-modules/3.2.10/bin/modulecmd python load subversion intel/compiler intel/mkl netcdf/intel/64 intel/mpi hdf5/parallel/intelmpi/1.8.11 netcdf/intel/parallel failed with message:
ERROR: Unable to locate a modulefile for 'subversion'
ERROR: Unable to locate a modulefile for 'intel/compiler'
ERROR: Unable to locate a modulefile for 'intel/mkl'
ERROR: Unable to locate a modulefile for 'netcdf/intel/64'
ERROR: Unable to locate a modulefile for 'intel/mpi'
ERROR: Unable to locate a modulefile for 'hdf5/parallel/intelmpi/1.8.11'
ERROR: Unable to locate a modulefile for 'netcdf/intel/parallel'
 ---------------------------------------------------
2021-08-20 11:03:48: case.build starting 
 ---------------------------------------------------
2021-08-20 11:03:49: case.build error 
ERROR: module command /cm/local/apps/environment-modules/3.2.10/bin/modulecmd python load subversion intel/compiler intel/mkl netcdf/intel/64 intel/mpi hdf5/parallel/intelmpi/1.8.11 netcdf/intel/parallel failed with message:
ERROR: Unable to locate a modulefile for 'subversion'
ERROR: Unable to locate a modulefile for 'intel/compiler'
ERROR: Unable to locate a modulefile for 'intel/mkl'
ERROR: Unable to locate a modulefile for 'netcdf/intel/64'
ERROR: Unable to locate a modulefile for 'intel/mpi'
ERROR: Unable to locate a modulefile for 'hdf5/parallel/intelmpi/1.8.11'
ERROR: Unable to locate a modulefile for 'netcdf/intel/parallel'
 ---------------------------------------------------
2021-08-20 12:03:09: build.clean starting 
 ---------------------------------------------------
2021-08-20 12:03:09: build.clean success 
 ---------------------------------------------------
2021-08-20 12:03:20: case.build starting 
 ---------------------------------------------------
2021-08-20 12:03:20: case.build error 
ERROR: module command /cm/local/apps/environment-modules/3.2.10/bin/modulecmd python purge  failed with message:
Unloading hdf5/1.10.7
  Module ERROR: Magic cookie '#%Module' missing
    In '/opt/sw/modules/20.12/cascadelake/intel-mpi/2019.9.304/intel/2020.4/hdf5/1.10.7.lua'
    Please contact <root@localhost>

Unloading netcdf-fortran/4.5.3
  Module ERROR: Magic cookie '#%Module' missing
    In '/opt/sw/modules/20.12/cascadelake/intel-mpi/2019.9.304/intel/2020.4/netcdf-fortran/4.5.3.lua'
    Please contact <root@localhost>

Unloading netcdf-c/4.7.4
  Module ERROR: Magic cookie '#%Module' missing
    In '/opt/sw/modules/20.12/cascadelake/intel-mpi/2019.9.304/intel/2020.4/netcdf-c/4.7.4.lua'
    Please contact <root@localhost>

Unloading openjdk/11.0.2
  Module ERROR: Magic cookie '#%Module' missing
    In '/opt/sw/modules/20.12/cascadelake/intel/2020.4/openjdk/11.0.2.lua'
    Please contact <root@localhost>

Unloading intel-mpi/2019.9.304
  Module ERROR: Magic cookie '#%Module' missing
    In '/opt/sw/modules/20.12/cascadelake/intel/2020.4/intel-mpi/2019.9.304.lua'
    Please contact <root@localhost>

Unloading intel/2020.4
  Module ERROR: Magic cookie '#%Module' missing
    In '/opt/sw/modules/20.12/cascadelake/Core/intel/2020.4.lua'
    Please contact <root@localhost>

Unloading intel-parallel-studio/cluster.2020.4
  Module ERROR: Magic cookie '#%Module' missing
    In '/opt/sw/modules/20.12/cascadelake/Core/intel-parallel-studio/cluster.2020.4.lua'
    Please contact <root@localhost>

Unloading subversion/1.14.0
  Module ERROR: Magic cookie '#%Module' missing
    In '/opt/sw/modules/20.12/cascadelake/Core/subversion/1.14.0.lua'
    Please contact <root@localhost>
 ---------------------------------------------------
2021-08-20 12:04:28: build.clean starting 
 ---------------------------------------------------
2021-08-20 12:04:28: build.clean success 
 ---------------------------------------------------
2021-08-20 12:04:43: setup.clean starting 
 ---------------------------------------------------
2021-08-20 12:04:43: setup.clean success 
 ---------------------------------------------------
2021-08-20 12:04:53: case.setup starting 
 ---------------------------------------------------
2021-08-20 12:04:53: case.setup error 
ERROR: module command /cm/local/apps/environment-modules/3.2.10/bin/modulecmd python purge  failed with message:
Unloading hdf5/1.10.7
  Module ERROR: Magic cookie '#%Module' missing
    In '/opt/sw/modules/20.12/cascadelake/intel-mpi/2019.9.304/intel/2020.4/hdf5/1.10.7.lua'
    Please contact <root@localhost>

Unloading netcdf-fortran/4.5.3
  Module ERROR: Magic cookie '#%Module' missing
    In '/opt/sw/modules/20.12/cascadelake/intel-mpi/2019.9.304/intel/2020.4/netcdf-fortran/4.5.3.lua'
    Please contact <root@localhost>

Unloading netcdf-c/4.7.4
  Module ERROR: Magic cookie '#%Module' missing
    In '/opt/sw/modules/20.12/cascadelake/intel-mpi/2019.9.304/intel/2020.4/netcdf-c/4.7.4.lua'
    Please contact <root@localhost>

Unloading openjdk/11.0.2
  Module ERROR: Magic cookie '#%Module' missing
    In '/opt/sw/modules/20.12/cascadelake/intel/2020.4/openjdk/11.0.2.lua'
    Please contact <root@localhost>

Unloading intel-mpi/2019.9.304
  Module ERROR: Magic cookie '#%Module' missing
    In '/opt/sw/modules/20.12/cascadelake/intel/2020.4/intel-mpi/2019.9.304.lua'
    Please contact <root@localhost>

Unloading intel/2020.4
  Module ERROR: Magic cookie '#%Module' missing
    In '/opt/sw/modules/20.12/cascadelake/Core/intel/2020.4.lua'
    Please contact <root@localhost>

Unloading intel-parallel-studio/cluster.2020.4
  Module ERROR: Magic cookie '#%Module' missing
    In '/opt/sw/modules/20.12/cascadelake/Core/intel-parallel-studio/cluster.2020.4.lua'
    Please contact <root@localhost>

Unloading subversion/1.14.0
  Module ERROR: Magic cookie '#%Module' missing
    In '/opt/sw/modules/20.12/cascadelake/Core/subversion/1.14.0.lua'
    Please contact <root@localhost>
 ---------------------------------------------------
