2020-08-20 15:24:51: case.setup starting 
 ---------------------------------------------------
2020-08-20 15:24:52: case.setup success 
 ---------------------------------------------------
2020-08-20 15:25:10: case.build starting 
 ---------------------------------------------------
2020-08-20 15:25:12: case.build error 
ERROR: Command /home/uni05/yfan1/clm_efforts_palm/bld/build-namelist failed rc=255
out=setting clm_usr_name -- but did NOT find any user datasets: UNSET
CLM adding use_case 2000_control defaults for var 'sim_year' with val '2000'
CLM adding use_case 2000_control defaults for var 'sim_year_range' with val 'constant'
CLM adding use_case 2000_control defaults for var 'stream_year_first_urbantv' with val '2000'
CLM adding use_case 2000_control defaults for var 'stream_year_last_urbantv' with val '2000'
CLM adding use_case 2000_control defaults for var 'use_case_desc' with val 'Conditions to simulate 2000 land-use'
err=ERROR : CLM build-namelist::CLMBuildNamelist::add_default() : No default value found for fsurdat.
            Are defaults provided for this resolution and land mask?
 ---------------------------------------------------
2020-08-20 15:26:35: xmlchange success <command> ./xmlchange CLM_USRDAT_NAME=1x1pt_Jambi,DATM_MODE=CLM1PT,CLM_BLDNML_OPTS=-mask navy -bgc bgc  </command>
 ---------------------------------------------------
2020-08-20 15:26:36: xmlchange success <command> ./xmlchange CLM_ACCELERATED_SPINUP=on  </command>
 ---------------------------------------------------
2020-08-20 15:26:36: xmlchange success <command> ./xmlchange CLM_FORCE_COLDSTART=on  </command>
 ---------------------------------------------------
2020-08-20 15:26:36: xmlchange success <command> ./xmlchange DATM_PRESAERO=clim_1850  </command>
 ---------------------------------------------------
2020-08-20 15:26:36: xmlchange success <command> ./xmlchange STOP_N=5,STOP_OPTION=nyears  </command>
 ---------------------------------------------------
2020-08-20 15:26:36: xmlchange success <command> ./xmlchange RUN_STARTDATE=0001-01-01  </command>
 ---------------------------------------------------
2020-08-20 15:26:36: xmlchange success <command> ./xmlchange CCSM_CO2_PPMV=284.7  </command>
 ---------------------------------------------------
2020-08-20 15:26:37: xmlchange success <command> ./xmlchange ATM_DOMAIN_FILE=domain.lnd.${CLM_USRDAT_NAME}_navy.nc  </command>
 ---------------------------------------------------
2020-08-20 15:26:37: xmlchange success <command> ./xmlchange ATM_DOMAIN_PATH=$DIN_LOC_ROOT/share/domains/domain.clm  </command>
 ---------------------------------------------------
2020-08-20 15:26:37: xmlchange success <command> ./xmlchange LND_DOMAIN_FILE=domain.lnd.${CLM_USRDAT_NAME}_navy.nc  </command>
 ---------------------------------------------------
2020-08-20 15:26:37: xmlchange success <command> ./xmlchange LND_DOMAIN_PATH=$DIN_LOC_ROOT/share/domains/domain.clm  </command>
 ---------------------------------------------------
2020-08-20 15:26:45: case.build starting 
 ---------------------------------------------------
2020-08-20 15:26:46: case.build error 
ERROR: Command /home/uni05/yfan1/clm_efforts_palm/bld/build-namelist failed rc=255
out=setting clm_usr_name -- but did NOT find any user datasets: 1x1pt_Jambi
CLM adding use_case 2000_control defaults for var 'sim_year' with val '2000'
CLM adding use_case 2000_control defaults for var 'sim_year_range' with val 'constant'
CLM adding use_case 2000_control defaults for var 'stream_year_first_ndep' with val '2000'
CLM adding use_case 2000_control defaults for var 'stream_year_first_popdens' with val '2000'
CLM adding use_case 2000_control defaults for var 'stream_year_first_urbantv' with val '2000'
CLM adding use_case 2000_control defaults for var 'stream_year_last_ndep' with val '2000'
CLM adding use_case 2000_control defaults for var 'stream_year_last_popdens' with val '2000'
CLM adding use_case 2000_control defaults for var 'stream_year_last_urbantv' with val '2000'
CLM adding use_case 2000_control defaults for var 'use_case_desc' with val 'Conditions to simulate 2000 land-use'
err=ERROR : CLM build-namelist::CLMBuildNamelist::add_default() : No default value found for fsurdat.
            Are defaults provided for this resolution and land mask?
 ---------------------------------------------------
2020-08-20 15:35:18: case.build starting 
 ---------------------------------------------------
CESM version is clm5.0.dev012-15-g68f1619
Processing externals description file : Externals.cfg
Processing externals description file : Externals_CISM.cfg
Processing externals description file : Externals_CLM.cfg
Checking status of externals: cism, source_cism, clm, fates, ptclm, mosart, cime, rtm, 
    ./cime
        clean sandbox, on a67dceae95567cc7529c4cfed153017f4b65b210
    ./components/cism
        clean sandbox, on release-cesm2.0.00
    ./components/cism/source_cism
        clean sandbox, on release-cism2.1.00
    ./components/mosart
        clean sandbox, on release-cesm2.0.00
    ./components/rtm
        clean sandbox, on rtm1_0_66
    ./src/fates
        clean sandbox, on fates_s1.8.1_a3.0.0
    ./tools/PTCLM
        clean sandbox, on PTCLM2_180214
2020-08-20 15:39:52: case.build success 
 ---------------------------------------------------
2020-08-20 15:48:03: build.clean starting 
 ---------------------------------------------------
2020-08-20 15:50:18: build.clean success 
 ---------------------------------------------------
2020-08-20 15:54:03: case.build starting 
 ---------------------------------------------------
2020-08-20 15:54:04: case.build error 
ERROR: Command /home/uni05/yfan1/clm_efforts_palm/bld/build-namelist failed rc=255
out=
err=NOT a valid CLM version: None
 ---------------------------------------------------
