fsurdat = '/usr/users/model4bk/CESM/INPUT/lnd/clm2/surfdata_map/Harapan-surfdata_1x1_Jambi_16pfts_Irrig_CMIP6_simyr2000.nc'
paramfile = '/usr/users/model4bk/CESM/INPUT/lnd/clm2/pftdata/clm5_params.c171117.nc'
