fsurdat = '/usr/users/model4bk/CESM/INPUT/lnd/clm2/surfdata_map/surfdata_1x1pt_Jambi_forest_78pfts_CMIP6_simyr1850_c171214.nc'
paramfile = '/usr/users/model4bk/CESM/INPUT/lnd/clm2/pftdata/clm5_params.c190502_new.nc'
